   24

C       3.687478    0.224307    5.479923
C       2.279256    0.324667    5.470091
C       1.584386    0.381232    4.242410
C       2.298171    0.341521    3.025278
C       3.706078    0.245531    3.035173
C       4.400282    0.184947    4.262174
C       4.726950    3.827689    4.205249
C       3.319022    3.923374    4.195365
C       2.624934    3.984123    2.968302
C       3.337859    3.945294    1.750679
C       4.746129    3.845227    1.760480
C       5.440879    3.788493    2.988201
H       4.233878    0.180102    6.442717
H       1.719703    0.359621    6.425587
H       0.479298    0.460509    4.233701
H       1.755100    0.394171    2.061288
H       4.266713    0.229979    2.080241
H       5.505774    0.115095    4.268412
H       5.270130    3.774910    5.169181
H       2.758381    3.938504    5.150256
H       1.519374    4.053682    2.962047
H       2.791521    3.989578    0.787827
H       5.305839    3.810477    0.805051
H       6.545966    3.709456    2.997171
