   13

C       2.185316    1.110541   -0.000000
C       3.411267    1.811956   -0.000000
C       3.437511    3.220003    0.000000
C       2.218791    3.939253    0.000000
C       0.986033    3.245609   -0.000000
C       0.975344    1.835586   -0.000000
H       1.381877    5.672029    0.000000
H       2.173297    0.003707   -0.000000
H       4.368087    1.253153   -0.000000
H       4.392189    3.780301    0.000000
H       0.033917    3.815636    0.000000
H       0.005282    1.300601   -0.000000
O       2.292378    5.317346    0.000000
