   12

C       4.695516    3.627542    4.243879
C       3.279786    3.702877    4.233012
C       2.583332    3.783498    3.000695
C       3.302998    3.788557    1.779084
C       4.718878    3.713131    1.789907
C       5.415163    3.632570    3.022286
H       5.239584    3.563210    5.207053
H       2.717813    3.697959    5.187932
H       1.476852    3.841810    2.992262
H       2.759169    3.850081    0.815691
H       5.281317    3.714837    0.835136
H       6.521485    3.571484    3.030708
