   10

C       3.767886    6.971984    4.976944
C       5.230830    6.570822    5.161963
H       6.382620    5.105112    5.399288
H       1.859175    6.222794    4.975114
H       2.972889    5.178171    4.348557
H       3.565401    7.725915    5.776335
H       3.754178    7.548598    4.010796
O       6.162830    7.369113    5.145532
O       5.407518    5.219352    5.316567
N       2.817681    5.870991    5.093037
